/*--------------------------------*- C++ -*----------------------------------*\
| =========                 |                                                 |
| \\      /  F ield         | OpenFOAM: The Open Source CFD Toolbox           |
|  \\    /   O peration     | Version:  dev                                   |
|   \\  /    A nd           | Web:      www.OpenFOAM.org                      |
|    \\/     M anipulation  |                                                 |
\*---------------------------------------------------------------------------*/
FoamFile
{
    version     2.0;
    format      ascii;
    class       volScalarField;
    object      p_rgh;
}
// * * * * * * * * * * * * * * * * * * * * * * * * * * * * * * * * * * * * * //

dimensions      [1 -1 -2 0 0 0 0];

internalField   uniform 0;

boundaryField
{
    Weste
    {
        type            totalPressure;
        p0		uniform 0;
    }

    Este
    {
        type            zeroGradient;
    }

    Efluente
    {
        type            zeroGradient;
    }
	
    Costa
    {
        type            zeroGradient;
    }
    
    Oceano
    {
        type            totalPressure;
        p0		uniform 0;
    }

    Atmosfera
    {
        type            zeroGradient;
    }
    
    Emisario
    {
        type            zeroGradient;
    }
    
    Fondo
    {
        type            zeroGradient;
    }

    defaultFaces
    {
        type            empty;
    }
}

// ************************************************************************* //
