/*--------------------------------*- C++ -*----------------------------------*\
  =========                 |
  \\      /  F ield         | OpenFOAM: The Open Source CFD Toolbox
   \\    /   O peration     | Website:  https://openfoam.org
    \\  /    A nd           | Version:  8
     \\/     M anipulation  |
\*---------------------------------------------------------------------------*/
FoamFile
{
    version     2.0;
    format      ascii;
    class       dictionary;
    object      topoSetDict;
}

// * * * * * * * * * * * * * * * * * * * * * * * * * * * * * * * * * * * * * //

actions
(
    {
        name    celda1;
        type    cellSet;
        action  new;
        source  boxToCell;
        sourceInfo
        {
            box (28.5 29 -37)(33 32 -29);
        }
    }

    {
        name    celda2;
        type    cellSet;
        action  new;
        source  boxToCell;
        sourceInfo
        {
            box (28 27 -37)(38 29 -27);
        }
    }

    {
        name    celda3;
        type    cellSet;
        action  new;
        source  boxToCell;
        sourceInfo
        {
            box (22 32 -37)(27 42 -27);
        }
    }


    {
        name    zona1;
        type    cellZoneSet;
        action  new;
        source  setToCellZone;
        sourceInfo
        {
            set celda1;
        }
    }

    {
        name    zona2;
        type    cellZoneSet;
        action  new;
        source  setToCellZone;
        sourceInfo
        {
            set celda2;
        }
    }

    {
        name    zona3;
        type    cellZoneSet;
        action  new;
        source  setToCellZone;
        sourceInfo
        {
            set celda3;
        }
    }

);

// ************************************************************************* //
