/*--------------------------------*- C++ -*----------------------------------*\
  =========                 |
  \\      /  F ield         | OpenFOAM: The Open Source CFD Toolbox
   \\    /   O peration     | Website:  https://openfoam.org
    \\  /    A nd           | Version:  8
     \\/     M anipulation  |
\*---------------------------------------------------------------------------*/
FoamFile
{
    version     2.0;
    format      ascii;
    class       dictionary;
    object      topoSetDict;
}

// * * * * * * * * * * * * * * * * * * * * * * * * * * * * * * * * * * * * * //

actions
(
    {
        name    celda1;
        type    cellSet;
        action  new;
        source  boxToCell;
        sourceInfo
        {
            box (248.186 91.236 0)(286.3 102.2 1);
        }
    }

    {
        name    celda2;
        type    cellSet;
        action  new;
        source  boxToCell;
        sourceInfo
        {
            box (300.282 131.324 0)(307.767 143.076 1);
        }
    }

    {
        name    celda3;
        type    cellSet;
        action  new;
        source  boxToCell;
        sourceInfo
        {
            box (367.541 165.841 0)(392.075 182.333 1);
        }
    }

    {
        name    zona1;
        type    cellZoneSet;
        action  new;
        source  setToCellZone;
        sourceInfo
        {
            set celda1;
        }
    }

    {
        name    zona2;
        type    cellZoneSet;
        action  new;
        source  setToCellZone;
        sourceInfo
        {
            set celda2;
        }
    }

    {
        name    zona3;
        type    cellZoneSet;
        action  new;
        source  setToCellZone;
        sourceInfo
        {
            set celda3;
        }
    }
);

// ************************************************************************* //
