/*--------------------------------*- C++ -*----------------------------------*\
| =========                 |                                                 |
| \\      /  F ield         | OpenFOAM: The Open Source CFD Toolbox           |
|  \\    /   O peration     | Version:  dev                                   |
|   \\  /    A nd           | Web:      www.OpenFOAM.org                      |
|    \\/     M anipulation  |                                                 |
\*---------------------------------------------------------------------------*/
FoamFile
{
    version     2.0;
    format      ascii;
    class       dictionary;
    location    "system";
    object      setFieldsDict;
}
// * * * * * * * * * * * * * * * * * * * * * * * * * * * * * * * * * * * * * //

defaultFieldValues
(
    volScalarFieldValue alpha.air 0
    volScalarFieldValue alpha.other 0
    volScalarFieldValue alpha.water 1
);

regions
(
    cylinderToCell
    {
        p1 (30.75 30.75 -35.8); 
        p2 (30.95 30.95 -35.8);
        radius 0.146;              
        fieldValues
        (
            volScalarFieldValue alpha.air 0
            volScalarFieldValue alpha.other 1
            volScalarFieldValue alpha.water 0
        );
    }
);


// ************************************************************************* //
