/*--------------------------------*- C++ -*----------------------------------*\
  =========                 |
  \\      /  F ield         | OpenFOAM: The Open Source CFD Toolbox
   \\    /   O peration     | Website:  https://openfoam.org
    \\  /    A nd           | Version:  8
     \\/     M anipulation  |
\*---------------------------------------------------------------------------*/
FoamFile
{
    version     2.0;
    format      ascii;
    class       dictionary;
    object      topoSetDict;
}

// * * * * * * * * * * * * * * * * * * * * * * * * * * * * * * * * * * * * * //

actions
(
    {
        name    celda1;
        type    cellSet;
        action  new;
        source  boxToCell;
        sourceInfo
        {
            box (248.186 91.236 0)(286.3 102.2 1);
        }
    }

    {
        name    celda2;
        type    cellSet;
        action  new;
        source  boxToCell;
        sourceInfo
        {
            box (169.941 31.5683 0)(193.294 49.5406 1);
        }
    }

    {
        name    celda3;
        type    cellSet;
        action  new;
        source  boxToCell;
        sourceInfo
        {
            box (111.279 15.6744 0)(135.005 28.4124 1);
        }
    }

    {
        name    zona1;
        type    cellZoneSet;
        action  new;
        source  setToCellZone;
        sourceInfo
        {
            set celda1;
        }
    }

    {
        name    zona2;
        type    cellZoneSet;
        action  new;
        source  setToCellZone;
        sourceInfo
        {
            set celda2;
        }
    }

    {
        name    zona3;
        type    cellZoneSet;
        action  new;
        source  setToCellZone;
        sourceInfo
        {
            set celda3;
        }
    }
);

// ************************************************************************* //
