/*--------------------------------*- C++ -*----------------------------------*\
  =========                 |
  \\      /  F ield         | OpenFOAM: The Open Source CFD Toolbox
   \\    /   O peration     | Website:  https://openfoam.org
    \\  /    A nd           | Version:  8
     \\/     M anipulation  |
\*---------------------------------------------------------------------------*/
FoamFile
{
    version     2.0;
    format      ascii;
    class       volScalarField;
    object      dbo;
}
// * * * * * * * * * * * * * * * * * * * * * * * * * * * * * * * * * * * * * //

dimensions      [0 0 0 0 0 0 0];

internalField   uniform 0;

boundaryField
{
    Canal
    {
        type            zeroGradient;
    }

    Este
    {
        type            zeroGradient;
    }

    Efluente
    {
        type            fixedValue;
        value           uniform 7.96;
    }

    Weste
    {
        type            zeroGradient;
    }

    Ribera_Norte
    {
        type            zeroGradient;
    }

    Ribera_Sur
    {
        type            zeroGradient;
    }

    Atmosfera
    {
        type            zeroGradient;
    }
    
    Fondo
    {
        type            zeroGradient;
    }
}

// ************************************************************************* //
