/*--------------------------------*- C++ -*----------------------------------*\
  =========                 |
  \\      /  F ield         | OpenFOAM: The Open Source CFD Toolbox
   \\    /   O peration     | Website:  https://openfoam.org
    \\  /    A nd           | Version:  8
     \\/     M anipulation  |
\*---------------------------------------------------------------------------*/
FoamFile
{
    version     2.0;
    format      ascii;
    class       volVectorField;
    object      U;
}
// * * * * * * * * * * * * * * * * * * * * * * * * * * * * * * * * * * * * * //

dimensions      [0 1 -1 0 0 0 0];

internalField   uniform (0.1129 0.1063 0);

boundaryField
{
    Canal
    {
        type            noSlip;
    }

    Weste
    {
        type            fixedValue;
        value           uniform (0.1129 0.1063 0);
    }

    Efluente
    {
        type                   flowRateInletVelocity;
        volumetricFlowRate     constant 0.472;    
        value                  uniform (0 0 0);
    }

    Este
    {
        type            zeroGradient;
    }

    Ribera_Norte
    {
        type            noSlip;
    }

    Ribera_Sur
    {
        type            noSlip;
    }

    Fondo
    {
        type            noSlip;
    }
    
    Atmosfera
    {
        type            noSlip;
    }
}

// ************************************************************************* //
